REMARK SMILES O=C(NN1C(=O)[C@@H]2[C@H](C1=O)[C@H]1C=C[C@@H]2C1)c1cccnc1
REMARK SMILES IDX 4 1 5 2 6 3 7 4 14 5 13 6 12 7 11 8 15 9 8 10 9 11 10 12
REMARK SMILES IDX 3 13 2 14 1 15 16 17 17 18 21 19 18 20 20 21 19 22
REMARK H PARENT 3 16
ROOT
ATOM      1  N   UNL     1       0.153  -0.269  -0.103  1.00  0.00    -0.187 N 
ATOM      2  C   UNL     1       0.881  -0.374  -1.263  1.00  0.00     0.252 C 
ATOM      3  O   UNL     1       0.541  -0.063  -2.394  1.00  0.00    -0.272 OA
ATOM      4  C   UNL     1       2.255  -0.863  -0.883  1.00  0.00     0.101 C 
ATOM      5  C   UNL     1       3.378   0.127  -1.253  1.00  0.00     0.025 C 
ATOM      6  C   UNL     1       4.681  -0.496  -0.799  1.00  0.00    -0.027 C 
ATOM      7  C   UNL     1       4.689  -0.468   0.544  1.00  0.00    -0.027 C 
ATOM      8  C   UNL     1       3.392   0.173   0.989  1.00  0.00     0.025 C 
ATOM      9  C   UNL     1       3.253   1.190  -0.153  1.00  0.00     0.017 C 
ATOM     10  C   UNL     1       2.266  -0.832   0.674  1.00  0.00     0.101 C 
ATOM     11  C   UNL     1       0.898  -0.332   1.047  1.00  0.00     0.252 C 
ATOM     12  O   UNL     1       0.553   0.028   2.163  1.00  0.00    -0.272 OA
ENDROOT
BRANCH   1  13
ATOM     13  N   UNL     1      -1.147   0.226  -0.094  1.00  0.00    -0.254 N 
ATOM     14  C   UNL     1      -2.159  -0.716  -0.119  1.00  0.00     0.271 C 
ATOM     15  O   UNL     1      -1.968  -1.916  -0.289  1.00  0.00    -0.267 OA
ATOM     16  H   UNL     1      -1.277   1.093   0.417  1.00  0.00     0.192 HD
BRANCH  14  17
ATOM     17  C   UNL     1      -3.530  -0.207   0.116  1.00  0.00     0.059 A 
ATOM     18  C   UNL     1      -3.912   1.115  -0.129  1.00  0.00     0.017 A 
ATOM     19  C   UNL     1      -4.498  -1.088   0.581  1.00  0.00     0.124 A 
ATOM     20  C   UNL     1      -5.228   1.503   0.121  1.00  0.00     0.021 A 
ATOM     21  N   UNL     1      -5.782  -0.733   0.838  1.00  0.00    -0.264 NA
ATOM     22  C   UNL     1      -6.117   0.554   0.603  1.00  0.00     0.111 A 
ENDBRANCH  14  17
ENDBRANCH   1  13
TORSDOF 2
