REMARK SMILES CCOC(=O)c1c(C)nc2sccn12
REMARK SMILES IDX 3 1 2 2 1 3 4 4 5 5 6 6 7 7 14 8 9 9 13 10 10 11 12 12 11 13
REMARK SMILES IDX 8 14
REMARK H PARENT
ROOT
ATOM      1  O   UNL     1      -1.054   1.019   0.024  1.00  0.00    -0.461 OA
ENDROOT
BRANCH   1   2
ATOM      2  C   UNL     1      -2.398   1.476  -0.193  1.00  0.00     0.230 C 
ATOM      3  C   UNL     1      -3.353   0.752   0.737  1.00  0.00     0.049 C 
ENDBRANCH   1   2
BRANCH   1   4
ATOM      4  C   UNL     1      -0.680  -0.087  -0.678  1.00  0.00     0.357 C 
ATOM      5  O   UNL     1      -1.411  -0.688  -1.454  1.00  0.00    -0.244 OA
BRANCH   4   6
ATOM      6  C   UNL     1       0.678  -0.446  -0.379  1.00  0.00     0.155 A 
ATOM      7  C   UNL     1       1.419  -1.512  -0.904  1.00  0.00     0.072 A 
ATOM      8  N   UNL     1       1.560   0.162   0.482  1.00  0.00    -0.284 N 
ATOM      9  N   UNL     1       2.702  -1.555  -0.387  1.00  0.00    -0.223 NA
ATOM     10  C   UNL     1       1.581   1.240   1.347  1.00  0.00     0.105 A 
ATOM     11  C   UNL     1       2.728  -0.541   0.427  1.00  0.00     0.194 A 
ATOM     12  C   UNL     1       2.770   1.370   1.962  1.00  0.00     0.087 A 
ATOM     13  S   UNL     1       3.935   0.132   1.480  1.00  0.00    -0.105 S 
ATOM     14  C   UNL     1       0.994  -2.534  -1.894  1.00  0.00     0.069 C 
ENDBRANCH   4   6
ENDBRANCH   1   4
TORSDOF 3
