REMARK SMILES COc1ccc(NC(=O)Cn2cnc([N+](=O)[O-])c2)c(OC)c1
REMARK SMILES IDX 7 1 8 2 9 3 6 5 3 6 4 7 22 8 5 9 19 10 2 11 1 12 20 13 21 14
REMARK SMILES IDX 10 15 11 16 12 17 18 18 13 19 14 20 15 21 16 22 17 23
REMARK H PARENT 7 4
ROOT
ATOM      1  N   UNL     1      -0.315  -0.589  -0.991  1.00  0.00    -0.321 N 
ATOM      2  C   UNL     1      -1.165  -0.141  -1.982  1.00  0.00     0.244 C 
ATOM      3  O   UNL     1      -0.928   0.740  -2.804  1.00  0.00    -0.273 OA
ATOM      4  H   UNL     1      -0.643  -1.299  -0.341  1.00  0.00     0.170 HD
ENDROOT
BRANCH   1   5
ATOM      5  C   UNL     1       1.004  -0.165  -0.712  1.00  0.00     0.084 A 
ATOM      6  C   UNL     1       3.628   0.565  -0.028  1.00  0.00     0.122 A 
ATOM      7  C   UNL     1       2.989   1.169  -1.109  1.00  0.00     0.049 A 
ATOM      8  C   UNL     1       2.955  -0.411   0.713  1.00  0.00     0.095 A 
ATOM      9  C   UNL     1       1.681   0.805  -1.450  1.00  0.00     0.034 A 
ATOM     10  C   UNL     1       1.648  -0.780   0.382  1.00  0.00     0.146 A 
BRANCH   6  11
ATOM     11  O   UNL     1       4.899   0.831   0.406  1.00  0.00    -0.497 OA
ATOM     12  C   UNL     1       5.607   1.862  -0.272  1.00  0.00     0.278 C 
ENDBRANCH   6  11
BRANCH  10  13
ATOM     13  O   UNL     1       0.899  -1.724   1.050  1.00  0.00    -0.494 OA
ATOM     14  C   UNL     1       1.524  -2.375   2.152  1.00  0.00     0.278 C 
ENDBRANCH  10  13
ENDBRANCH   1   5
BRANCH   2  15
ATOM     15  C   UNL     1      -2.510  -0.840  -1.975  1.00  0.00     0.225 C 
BRANCH  15  16
ATOM     16  N   UNL     1      -3.474  -0.125  -1.163  1.00  0.00    -0.301 N 
ATOM     17  C   UNL     1      -4.037   1.084  -1.470  1.00  0.00     0.347 A 
ATOM     18  C   UNL     1      -4.004  -0.549   0.025  1.00  0.00     0.197 A 
ATOM     19  N   UNL     1      -4.897   1.464  -0.551  1.00  0.00    -0.025 NA
ATOM     20  C   UNL     1      -4.881   0.454   0.391  1.00  0.00     0.381 A 
BRANCH  20  21
ATOM     21  N   UNL     1      -5.707   0.510   1.578  1.00  0.00    -0.022 N 
ATOM     22  O   UNL     1      -5.643  -0.468   2.340  1.00  0.00    -0.358 OA
ATOM     23  O   UNL     1      -6.409   1.514   1.752  1.00  0.00    -0.358 OA
ENDBRANCH  20  21
ENDBRANCH  15  16
ENDBRANCH   2  15
TORSDOF 6
