REMARK SMILES COc1cc([N+](=O)[O-])cc2onc(C3OCCO3)c12
REMARK SMILES IDX 3 1 4 2 5 3 9 4 10 5 11 6 12 7 13 8 19 9 2 10 1 11 6 12 7 13
REMARK SMILES IDX 8 14 14 15 15 16 18 17 16 18 17 19
REMARK H PARENT
ROOT
ATOM      1  C   UNL     1       1.190   0.734   0.007  1.00  0.00     0.138 A 
ATOM      2  C   UNL     1       2.592   0.627   0.046  1.00  0.00     0.133 A 
ATOM      3  C   UNL     1       3.222  -0.630  -0.014  1.00  0.00     0.277 A 
ATOM      4  C   UNL     1       2.493  -1.822  -0.116  1.00  0.00     0.136 A 
ATOM      5  C   UNL     1       1.112  -1.671  -0.154  1.00  0.00     0.177 A 
ATOM      6  O   UNL     1       0.213  -2.683  -0.248  1.00  0.00    -0.355 OA
ATOM      7  N   UNL     1      -1.068  -2.167  -0.256  1.00  0.00    -0.078 NA
ATOM      8  C   UNL     1      -0.930  -0.831  -0.172  1.00  0.00     0.151 A 
ATOM      9  C   UNL     1       0.444  -0.460  -0.100  1.00  0.00     0.093 A 
ENDROOT
BRANCH   1  10
ATOM     10  O   UNL     1       0.492   1.908   0.059  1.00  0.00    -0.496 OA
ATOM     11  C   UNL     1       1.230   3.109   0.258  1.00  0.00     0.278 C 
ENDBRANCH   1  10
BRANCH   3  12
ATOM     12  N   UNL     1       4.690  -0.699   0.031  1.00  0.00     0.062 N 
ATOM     13  O   UNL     1       5.216  -1.819  -0.033  1.00  0.00    -0.258 OA
ATOM     14  O   UNL     1       5.314   0.367   0.130  1.00  0.00    -0.258 OA
ENDBRANCH   3  12
BRANCH   8  15
ATOM     15  C   UNL     1      -2.136   0.065  -0.148  1.00  0.00     0.305 C 
ATOM     16  O   UNL     1      -3.042  -0.220  -1.236  1.00  0.00    -0.345 OA
ATOM     17  O   UNL     1      -2.847  -0.030   1.105  1.00  0.00    -0.345 OA
ATOM     18  C   UNL     1      -4.324  -0.343  -0.624  1.00  0.00     0.192 C 
ATOM     19  C   UNL     1      -4.020  -0.775   0.784  1.00  0.00     0.192 C 
ENDBRANCH   8  15
TORSDOF 3
