REMARK SMILES COc1ccc2c(c1)C(=O)/C(=C/c1cccnc1)CO2
REMARK SMILES IDX 3 1 4 2 5 3 6 4 7 5 8 6 9 7 10 8 11 9 19 10 20 11 2 12 1 13
REMARK SMILES IDX 12 14 13 15 14 16 18 17 15 18 17 19 16 20
REMARK H PARENT
ROOT
ATOM      1  C   UNL     1       3.882   0.252   0.143  1.00  0.00     0.119 A 
ATOM      2  C   UNL     1       3.733  -1.132   0.260  1.00  0.00     0.050 A 
ATOM      3  C   UNL     1       2.456  -1.704   0.293  1.00  0.00     0.051 A 
ATOM      4  C   UNL     1       1.326  -0.894   0.224  1.00  0.00     0.131 A 
ATOM      5  C   UNL     1       1.470   0.486   0.087  1.00  0.00     0.068 A 
ATOM      6  C   UNL     1       2.745   1.059   0.051  1.00  0.00     0.062 A 
ATOM      7  C   UNL     1       0.269   1.327  -0.074  1.00  0.00     0.196 C 
ATOM      8  O   UNL     1       0.348   2.529  -0.295  1.00  0.00    -0.289 OA
ATOM      9  C   UNL     1      -1.030   0.613   0.056  1.00  0.00     0.038 C 
ATOM     10  C   UNL     1      -0.935  -0.695   0.775  1.00  0.00     0.269 C 
ATOM     11  O   UNL     1       0.111  -1.523   0.251  1.00  0.00    -0.488 OA
ENDROOT
BRANCH   1  12
ATOM     12  O   UNL     1       5.068   0.931   0.098  1.00  0.00    -0.497 OA
ATOM     13  C   UNL     1       6.259   0.159   0.180  1.00  0.00     0.278 C 
ENDBRANCH   1  12
BRANCH   9  14
ATOM     14  C   UNL     1      -2.126   1.211  -0.446  1.00  0.00     0.021 C 
BRANCH  14  15
ATOM     15  C   UNL     1      -3.473   0.648  -0.391  1.00  0.00    -0.007 A 
ATOM     16  C   UNL     1      -3.856  -0.406  -1.221  1.00  0.00     0.011 A 
ATOM     17  C   UNL     1      -4.423   1.152   0.492  1.00  0.00     0.119 A 
ATOM     18  C   UNL     1      -5.149  -0.916  -1.133  1.00  0.00     0.021 A 
ATOM     19  N   UNL     1      -5.685   0.673   0.603  1.00  0.00    -0.264 NA
ATOM     20  C   UNL     1      -6.018  -0.349  -0.214  1.00  0.00     0.111 A 
ENDBRANCH  14  15
ENDBRANCH   9  14
TORSDOF 3
