REMARK SMILES COc1cnc2c(c1)c(CCNC(C)=O)cn2C
REMARK SMILES IDX 10 1 9 2 3 3 4 4 8 5 5 6 7 7 6 8 17 9 16 10 18 11 2 12 1 13
REMARK SMILES IDX 11 14 12 15 13 16 14 18 15 19
REMARK H PARENT 12 17
ROOT
ATOM      1  C   UNL     1      -1.490  -0.261  -1.026  1.00  0.00     0.059 C 
ENDROOT
BRANCH   1   2
ATOM      2  C   UNL     1      -0.100  -0.806  -0.933  1.00  0.00    -0.019 A 
ATOM      3  C   UNL     1       2.450   1.169   1.099  1.00  0.00     0.137 A 
ATOM      4  C   UNL     1       3.456   0.242   0.844  1.00  0.00     0.159 A 
ATOM      5  C   UNL     1       1.186   0.933   0.554  1.00  0.00     0.060 A 
ATOM      6  N   UNL     1       3.337  -0.890   0.103  1.00  0.00    -0.234 NA
ATOM      7  C   UNL     1       0.998  -0.222  -0.225  1.00  0.00     0.026 A 
ATOM      8  C   UNL     1       2.096  -1.060  -0.398  1.00  0.00     0.140 A 
ATOM      9  N   UNL     1       1.696  -2.111  -1.180  1.00  0.00    -0.335 N 
ATOM     10  C   UNL     1       0.373  -1.972  -1.512  1.00  0.00     0.091 A 
ATOM     11  C   UNL     1       2.556  -3.198  -1.582  1.00  0.00     0.151 C 
BRANCH   3  12
ATOM     12  O   UNL     1       2.556   2.311   1.843  1.00  0.00    -0.495 OA
ATOM     13  C   UNL     1       3.840   2.608   2.380  1.00  0.00     0.278 C 
ENDBRANCH   3  12
ENDBRANCH   1   2
BRANCH   1  14
ATOM     14  C   UNL     1      -2.320  -0.581   0.220  1.00  0.00     0.120 C 
BRANCH  14  15
ATOM     15  N   UNL     1      -3.694  -0.127   0.105  1.00  0.00    -0.356 N 
ATOM     16  C   UNL     1      -4.035   1.194   0.276  1.00  0.00     0.216 C 
ATOM     17  H   UNL     1      -4.405  -0.799  -0.151  1.00  0.00     0.163 HD
ATOM     18  C   UNL     1      -5.506   1.468   0.128  1.00  0.00     0.114 C 
ATOM     19  O   UNL     1      -3.228   2.076   0.548  1.00  0.00    -0.275 OA
ENDBRANCH  14  15
ENDBRANCH   1  14
TORSDOF 4
