REMARK SMILES [NH3+][C@H]1[NH2+][C@@H]([NH2+]CC[C@H]2CC[C@@H](O)CC2)[NH2+][C@@H]2[NH2+][C@@H]([C@H]3CCCO3)NN21
REMARK SMILES IDX 6 1 7 2 8 3 9 4 10 5 11 6 14 7 13 8 12 9 5 11 4 14 15 15
REMARK SMILES IDX 3 16 16 17 2 18 25 19 17 20 24 21 18 22 1 30 19 34 20 35
REMARK SMILES IDX 23 36 21 37 22 38
REMARK H PARENT 12 10 5 12 5 13 15 23 15 24 3 25 3 26 17 27 17 28 24 29 1 31
REMARK H PARENT 1 32 1 33
ROOT
ATOM      1  C   UNL     1      32.012  36.488  60.641  1.00  0.00     0.271 C 
ENDROOT
BRANCH   1   2
ATOM      2  C   UNL     1      30.551  36.918  60.736  1.00  0.00     0.065 C 
BRANCH   2   3
ATOM      3  C   UNL     1      30.268  37.461  62.135  1.00  0.00    -0.005 C 
ATOM      4  C   UNL     1      30.767  36.799  63.252  1.00  0.00     0.006 C 
ATOM      5  C   UNL     1      30.518  37.299  64.524  1.00  0.00     0.032 C 
ATOM      6  C   UNL     1      29.777  38.464  64.679  1.00  0.00     0.114 C 
ATOM      7  C   UNL     1      29.532  38.628  62.291  1.00  0.00     0.006 C 
ATOM      8  C   UNL     1      29.286  39.129  63.562  1.00  0.00     0.032 C 
BRANCH   6   9
ATOM      9  O   UNL     1      29.531  38.960  65.920  1.00  0.00    -0.393 OA
ATOM     10  H   UNL     1      29.850  38.317  66.602  1.00  0.00     0.210 HD
ENDBRANCH   6   9
ENDBRANCH   2   3
ENDBRANCH   1   2
BRANCH   1  11
ATOM     11  N   UNL     1      32.338  36.047  59.279  1.00  0.00    -0.246 N 
ATOM     12  H   UNL     1      33.050  35.306  59.345  1.00  0.00     0.357 HD
ATOM     13  H   UNL     1      31.453  35.728  58.861  1.00  0.00     0.357 HD
BRANCH  11  14
ATOM     14  C   UNL     1      32.806  36.997  58.477  1.00  0.00     0.597 C 
ATOM     15  N   UNL     1      33.174  36.732  57.213  1.00  0.00    -0.182 N 
ATOM     16  N   UNL     1      32.928  38.231  58.992  1.00  0.00    -0.182 N 
ATOM     17  C   UNL     1      33.657  37.714  56.435  1.00  0.00     0.501 C 
ATOM     18  C   UNL     1      33.398  39.247  58.260  1.00  0.00     0.498 C 
ATOM     19  N   UNL     1      33.782  39.006  56.943  1.00  0.00    -0.027 NA
ATOM     20  N   UNL     1      34.085  37.757  55.179  1.00  0.00    -0.263 N 
ATOM     21  N   UNL     1      34.239  39.735  56.062  1.00  0.00    -0.180 NA
ATOM     22  C   UNL     1      34.450  39.021  54.954  1.00  0.00     0.305 C 
ATOM     23  H   UNL     1      33.902  36.005  57.261  1.00  0.00     0.364 HD
ATOM     24  H   UNL     1      32.286  36.482  56.755  1.00  0.00     0.364 HD
ATOM     25  H   UNL     1      31.988  38.510  59.307  1.00  0.00     0.364 HD
ATOM     26  H   UNL     1      33.666  38.105  59.699  1.00  0.00     0.364 HD
ATOM     27  H   UNL     1      34.889  37.125  55.054  1.00  0.00     0.354 HD
ATOM     28  H   UNL     1      33.352  37.455  54.522  1.00  0.00     0.354 HD
ATOM     29  H   UNL     1      33.569  40.490  55.860  1.00  0.00     0.149 HD
BRANCH  18  30
ATOM     30  N   UNL     1      33.499  40.464  58.790  1.00  0.00    -0.292 N 
ATOM     31  H   UNL     1      33.493  40.393  59.818  1.00  0.00     0.351 HD
ATOM     32  H   UNL     1      34.379  40.901  58.481  1.00  0.00     0.351 HD
ATOM     33  H   UNL     1      32.703  41.040  58.481  1.00  0.00     0.351 HD
ENDBRANCH  18  30
BRANCH  22  34
ATOM     34  C   UNL     1      34.955  39.530  53.765  1.00  0.00     0.194 C 
ATOM     35  C   UNL     1      35.209  38.896  52.625  1.00  0.00     0.042 C 
ATOM     36  O   UNL     1      35.274  40.845  53.618  1.00  0.00    -0.370 OA
ATOM     37  C   UNL     1      35.684  39.786  51.755  1.00  0.00     0.031 C 
ATOM     38  C   UNL     1      35.733  40.985  52.337  1.00  0.00     0.161 C 
ENDBRANCH  22  34
ENDBRANCH  11  14
ENDBRANCH   1  11
TORSDOF 7
