REMARK SMILES COC(=O)[C@@H]1C(=O)CS[C@H]1C(=O)OC
REMARK SMILES IDX 5 1 6 2 7 3 8 4 9 5 10 6 3 7 4 8 2 9 1 10 11 11 12 12 13 13
REMARK SMILES IDX 14 14
REMARK H PARENT
ROOT
ATOM      1  C   UNL     1       0.277   0.547  -0.290  1.00  0.00     0.191 C 
ATOM      2  C   UNL     1       0.158   0.206   1.170  1.00  0.00     0.158 C 
ATOM      3  O   UNL     1       0.241   1.063   2.049  1.00  0.00    -0.298 OA
ATOM      4  C   UNL     1      -0.038  -1.253   1.493  1.00  0.00     0.147 C 
ATOM      5  S   UNL     1      -0.125  -2.120  -0.091  1.00  0.00    -0.137 SA
ATOM      6  C   UNL     1      -0.309  -0.607  -1.086  1.00  0.00     0.178 C 
ENDROOT
BRANCH   1   7
ATOM      7  C   UNL     1       1.680   0.803  -0.754  1.00  0.00     0.318 C 
ATOM      8  O   UNL     1       1.934   1.378  -1.806  1.00  0.00    -0.251 OA
BRANCH   7   9
ATOM      9  O   UNL     1       2.608   0.269   0.080  1.00  0.00    -0.468 OA
ATOM     10  C   UNL     1       3.961   0.474  -0.334  1.00  0.00     0.282 C 
ENDBRANCH   7   9
ENDBRANCH   1   7
BRANCH   6  11
ATOM     11  C   UNL     1      -1.762  -0.346  -1.437  1.00  0.00     0.320 C 
ATOM     12  O   UNL     1      -2.199  -0.354  -2.580  1.00  0.00    -0.251 OA
BRANCH  11  13
ATOM     13  O   UNL     1      -2.506  -0.093  -0.323  1.00  0.00    -0.468 OA
ATOM     14  C   UNL     1      -3.890   0.146  -0.587  1.00  0.00     0.282 C 
ENDBRANCH  11  13
ENDBRANCH   6  11
TORSDOF 4
