REMARK SMILES N#Cc1c(NC(=O)[C@@H]2CCCO2)sc2c1CCCC2
REMARK SMILES IDX 3 1 4 2 13 3 14 4 15 5 16 6 17 7 18 8 19 9 2 10 1 11 5 12
REMARK SMILES IDX 6 13 7 15 8 16 9 17 12 18 10 19 11 20
REMARK H PARENT 5 14
ROOT
ATOM      1  C   UNL     1      -0.971  -1.097   0.507  1.00  0.00     0.090 A 
ATOM      2  C   UNL     1      -0.248   0.075   0.362  1.00  0.00     0.114 A 
ATOM      3  S   UNL     1      -1.265   1.391   0.000  1.00  0.00    -0.121 S 
ATOM      4  C   UNL     1      -2.657   0.421   0.021  1.00  0.00     0.011 A 
ATOM      5  C   UNL     1      -2.379  -0.899   0.314  1.00  0.00    -0.014 A 
ATOM      6  C   UNL     1      -3.460  -1.941   0.373  1.00  0.00     0.038 C 
ATOM      7  C   UNL     1      -4.857  -1.309   0.479  1.00  0.00     0.005 C 
ATOM      8  C   UNL     1      -5.029  -0.140  -0.501  1.00  0.00     0.006 C 
ATOM      9  C   UNL     1      -4.022   0.988  -0.222  1.00  0.00     0.047 C 
ENDROOT
BRANCH   1  10
ATOM     10  C   UNL     1      -0.367  -2.360   0.811  1.00  0.00     0.103 C 
ATOM     11  N   UNL     1       0.134  -3.378   1.056  1.00  0.00    -0.192 NA
ENDBRANCH   1  10
BRANCH   2  12
ATOM     12  N   UNL     1       1.121   0.236   0.492  1.00  0.00    -0.314 N 
ATOM     13  C   UNL     1       1.865   1.387   0.279  1.00  0.00     0.254 C 
ATOM     14  H   UNL     1       1.684  -0.588   0.704  1.00  0.00     0.170 HD
ATOM     15  O   UNL     1       1.462   2.493  -0.063  1.00  0.00    -0.272 OA
BRANCH  13  16
ATOM     16  C   UNL     1       3.352   1.136   0.585  1.00  0.00     0.207 C 
ATOM     17  C   UNL     1       4.276   1.875  -0.369  1.00  0.00     0.044 C 
ATOM     18  O   UNL     1       3.684  -0.266   0.494  1.00  0.00    -0.368 OA
ATOM     19  C   UNL     1       5.472   0.959  -0.436  1.00  0.00     0.032 C 
ATOM     20  C   UNL     1       4.822  -0.403  -0.370  1.00  0.00     0.161 C 
ENDBRANCH  13  16
ENDBRANCH   2  12
TORSDOF 3
