REMARK SMILES CCN(CC)C(=O)COc1ccc2ccccc2c1Br
REMARK SMILES IDX 8 1 6 2 3 3 7 4 2 5 1 6 4 7 5 8 9 9 10 10 11 11 19 12 12 13
REMARK SMILES IDX 18 14 13 15 17 16 14 17 16 18 15 19 20 20
REMARK H PARENT
ROOT
ATOM      1  C   UNL     1      -0.917  -0.234   0.477  1.00  0.00     0.329 C 
ENDROOT
BRANCH   1   2
ATOM      2  C   UNL     1      -2.212   0.370   1.043  1.00  0.00     0.260 C 
ATOM      3  N   UNL     1      -3.418  -0.220   0.642  1.00  0.00    -0.340 N 
ATOM      4  O   UNL     1      -2.194   1.324   1.824  1.00  0.00    -0.271 OA
BRANCH   3   5
ATOM      5  C   UNL     1      -3.524  -1.318  -0.323  1.00  0.00     0.116 C 
ATOM      6  C   UNL     1      -3.720  -0.837  -1.751  1.00  0.00     0.027 C 
ENDBRANCH   3   5
BRANCH   3   7
ATOM      7  C   UNL     1      -4.661   0.372   1.142  1.00  0.00     0.116 C 
ATOM      8  C   UNL     1      -5.053   1.650   0.412  1.00  0.00     0.027 C 
ENDBRANCH   3   7
ENDBRANCH   1   2
BRANCH   1   9
ATOM      9  O   UNL     1       0.223   0.522   0.864  1.00  0.00    -0.483 OA
BRANCH   9  10
ATOM     10  C   UNL     1       1.455   0.117   0.418  1.00  0.00     0.134 A 
ATOM     11  C   UNL     1       1.668  -1.026  -0.351  1.00  0.00     0.048 A 
ATOM     12  C   UNL     1       2.562   0.918   0.772  1.00  0.00     0.067 A 
ATOM     13  C   UNL     1       2.957  -1.369  -0.764  1.00  0.00     0.012 A 
ATOM     14  C   UNL     1       3.886   0.585   0.360  1.00  0.00    -0.000 A 
ATOM     15  C   UNL     1       4.064  -0.583  -0.421  1.00  0.00    -0.017 A 
ATOM     16  C   UNL     1       5.049   1.335   0.672  1.00  0.00     0.010 A 
ATOM     17  C   UNL     1       5.347  -0.959  -0.855  1.00  0.00     0.009 A 
ATOM     18  C   UNL     1       6.319   0.950   0.234  1.00  0.00     0.001 A 
ATOM     19  C   UNL     1       6.468  -0.198  -0.530  1.00  0.00     0.001 A 
ATOM     20  Br  UNL     1       2.245   2.488   1.831  1.00  0.00    -0.046 Br
ENDBRANCH   9  10
ENDBRANCH   1   9
TORSDOF 5
